<?xml version="1.0" encoding="UTF-8"?>

<!-- generated on 2022-09-14 21:15:58 by Eclipse SUMO GUI Version 1.14.1
<configuration xmlns:xsi="http://www.w3.org/2001/XMLSchema-instance" xsi:noNamespaceSchemaLocation="http://sumo.dlr.de/xsd/sumoConfiguration.xsd">

    <input>
        <net-file value="/home/lwh/Documents/Code/PredM/SUMO/traci_tls/data/cross.net.xml"/>
        <route-files value="/home/lwh/Documents/Code/PredM/SUMO/traci_tls/data/cross.rou.xml"/>
        <additional-files value="/home/lwh/Documents/Code/PredM/SUMO/traci_tls/data/cross.det.xml,/home/lwh/Documents/Code/PredM/SUMO/traci_tls/data/cross.prk.xml"/>
    </input>

    <time>
        <begin value="0"/>
    </time>

    <report>
        <verbose value="true"/>
        <no-step-log value="true"/>
    </report>

</configuration>
